FoamFile
{
    version     2.0;
    format      ascii;
    class       dictionary;
    location    "constant";
    object      transportProperties;
}

transportModel  Newtonian;

nu              [0 2 -1 0 0 0 0] 1e-5;  // 動黏度 (m^2/s)，此為空氣的典型值

